LTspice 24.1.10 for Windows
Circuit: C:\Users\dylan\Documents\GitHub\Black_Body\Simulations\LTspice_current_measurement_amplifier_filter\current_measurement_amplifier_filter.net
Start Time: Fri Jun  5 12:42:37 2026
solver = Normal
Maximum thread count: 22
tnom = 27
temp = 27
method = trap
.OP point found by inspection.
Total elapsed time: 0.196 seconds.

Files loaded:
C:\Users\dylan\Documents\GitHub\Black_Body\Simulations\LTspice_current_measurement_amplifier_filter\current_measurement_amplifier_filter.net

