LTspice 24.1.10 for Windows
Circuit: C:\Users\dylan\Documents\GitHub\Black_Body\simulation\LTspice_Current_source_simple\LM334_test.net
Start Time: Thu May 21 16:08:06 2026
solver = Normal
Maximum thread count: 22
tnom = 27
temp = 15
method = trap
Direct Newton iteration for .op point succeeded.
Total elapsed time: 0.406 seconds.

Files loaded:
C:\Users\dylan\Documents\GitHub\Black_Body\simulation\LTspice_Current_source_simple\LM334_test.net
C:\Users\dylan\AppData\Local\LTspice\lib\cmp\standard.dio
C:\Users\dylan\Documents\LTspice\LM334.sub

