LTspice 24.1.10 for Windows
Circuit: C:\Users\dylan\Downloads\power_supply.net
Start Time: Fri May 29 11:02:22 2026
solver = Normal
Maximum thread count: 22
tnom = 27
temp = 27
method = trap
Direct Newton iteration failed to find .op point.  (Use ".option noopiter" to skip.)
Starting Gmin stepping
Gmin = 10
Gmin = 1.07374
vernier = 0.5
vernier = 0.25
vernier = 0.125
vernier = 0.0625
Gmin = 1.08884
vernier = 0.03125
vernier = 0.015625
Gmin = 1.03122
vernier = 0.0078125
vernier = 0.00390625
Gmin = 1.01823
vernier = 0.00520833
vernier = 0.00260417
Gmin = 1.01162
vernier = 0.00347222
vernier = 0.00173611
vernier = 0.00231481
vernier = 0.00115741
Gmin = 1.00877
vernier = 0.00154321
vernier = 0.000771604
Gmin = 1.00673
vernier = 0.00102881
vernier = 0.000514403
vernier = 0.00068587
Gmin = 1.00553
vernier = 0.000514403
vernier = 0.00068587
vernier = 0.000514402
Gmin = 1.00475
Gmin = 0
Gmin stepping failed

Starting source stepping with srcstepmethod=0
Source Step = 3.0303%
vernier = 0.25
Source Step = 1.70455%
Source Step = 3.59848%
Source Step = 5.49242%
Source Step = 7.38636%
Source Step = 9.2803%
vernier = 0.09375
Source Step = 11.9318%
Source Step = 14.7727%
Source Step = 17.6136%
Source Step = 20.4545%
Source Step = 23.2955%
vernier = 0.140625
Source Step = 27.1307%
Source Step = 30.6463%
Source Step = 30.8394%
Source Step = 30.906%
Source Step = 30.9726%
Source Step = 31.0392%
Source Step = 31.1057%
vernier = 0.0032959
Source Step = 31.1856%
Source Step = 31.2855%
Source Step = 31.3854%
Source Step = 31.4853%
Source Step = 31.5851%
vernier = 0.00494385
Source Step = 31.7%
Source Step = 31.8498%
Source Step = 31.9996%
Source Step = 32.1494%
Source Step = 32.2992%
vernier = 0.00741577
Source Step = 32.464%
Source Step = 32.6888%
Source Step = 32.9135%
Source Step = 33.1382%
Source Step = 33.3629%
vernier = 0.0111237
Source Step = 33.5989%
Source Step = 33.936%
Source Step = 34.273%
Source Step = 34.6101%
Source Step = 34.9472%
Source Step = 35.2843%
vernier = 0.0166855
Source Step = 35.7899%
Source Step = 36.2955%
Source Step = 36.8011%
Source Step = 37.3068%
Source Step = 37.8124%
vernier = 0.0250282
Source Step = 38.5455%
Source Step = 39.304%
Source Step = 40.0624%
Source Step = 40.8208%
Source Step = 41.5793%
vernier = 0.0375423
Source Step = 42.6411%
Source Step = 43.7787%
Source Step = 44.9164%
Source Step = 46.054%
Source Step = 47.1917%
vernier = 0.0563135
Source Step = 48.7275%
Source Step = 50.1353%
vernier = 0.00351959
Starting source stepping with srcstepmethod=1
Source Step = 3.0303%
vernier = 0.25
Source Step = 7.57576%
Source Step = 15.1515%
Source Step = 22.7273%
Source Step = 30.303%
Source Step = 37.8788%
vernier = 0.375
Source Step = 48.8636%
Source Step = 60.2273%
Source Step = 71.5909%
Source Step = 82.9545%
Source Step = 94.3182%
vernier = 0.5625
Source Step = 99.1065%
vernier = 0.00878906
Source Step = 99.0599%
Source Step = 99.1265%
Source Step = 99.1931%
Source Step = 99.2597%
Source Step = 99.3263%
Source Step = 99.3928%
Source Step = 99.4594%
Source Step = 99.526%
Source Step = 99.5926%
Source Step = 99.6592%
Source Step = 99.7258%
Source Step = 99.7923%
Source Step = 99.8589%
Source Step = 99.9255%
Source Step = 99.9921%
Source stepping failed

Pseudo Transient succeeded in finding the operating point at 5.65199 s.
Total elapsed time: 6.314 seconds.

Files loaded:
C:\Users\dylan\Downloads\power_supply.net
C:\Users\dylan\AppData\Local\LTspice\lib\sub\LT3042.sub
C:\Users\dylan\AppData\Local\LTspice\lib\sub\LT3094.sub

