LTspice 24.1.10 for Windows
Circuit: C:\Users\dylan\Documents\GitHub\Black_Body\Simulations\LTspice_gpio_filter\pi_filter.net
Start Time: Thu Jun 11 11:23:35 2026
solver = Normal
Maximum thread count: 22
tnom = 27
temp = 27
method = trap
.OP point found by inspection.
Total elapsed time: 0.251 seconds.

Files loaded:
C:\Users\dylan\Documents\GitHub\Black_Body\Simulations\LTspice_gpio_filter\pi_filter.net

