LTspice 24.1.10 for Windows
Circuit: C:\Users\dylan\Documents\GitHub\Black_Body\Simulations\LTspice_Voltage_Measurement\Voltage_Amplifier.net
Start Time: Tue Jun  2 14:30:47 2026
solver = Normal
Maximum thread count: 22
tnom = 27
temp = 27
method = trap
Direct Newton iteration failed to find .op point.  (Use ".option noopiter" to skip.)
Starting Gmin stepping
Gmin = 10
Gmin = 1.07374
vernier = 0.5
vernier = 0.25
vernier = 0.125
vernier = 0.0625
Gmin = 1.10559
vernier = 0.03125
vernier = 0.015625
Gmin = 1.0552
vernier = 0.0078125
vernier = 0.0104167
vernier = 0.00520833
Gmin = 1.04089
vernier = 0.00260417
Gmin = 1.0328
vernier = 0.00347222
vernier = 0.00173611
Gmin = 1.0281
vernier = 0.00231481
vernier = 0.00115741
Gmin = 1.02484
vernier = 0.00154321
vernier = 0.000771604
Gmin = 1.02227
vernier = 0.00102881
vernier = 0.00137174
vernier = 0.00068587
Gmin = 1.0203
vernier = 0.000914493
vernier = 0.000457247
Gmin = 1.01896
vernier = 0.000609662
vernier = 0.000812882
Gmin = 1.01747
vernier = 0.000406441
vernier = 0.000541921
Gmin = 1.01661
vernier = 0.000722562
vernier = 0.000541921
vernier = 0.000406441
Gmin = 1.01589
vernier = 0.000541921
vernier = 0.000406441
vernier = 0.000541921
Gmin = 1.01503
vernier = 0.000406441
vernier = 0.000541921
vernier = 0.000406441
Gmin = 0
Gmin = 0
Gmin stepping failed

Starting source stepping with srcstepmethod=0
Source Step = 3.0303%
Source Step = 33.3333%
Source Step = 63.6364%
Source Step = 93.9394%
Source stepping succeeded in finding the operating point.

Direct Newton iteration failed to find .op point.  (Use ".option noopiter" to skip.)
Starting Gmin stepping
Gmin = 10
Gmin = 1.07374
vernier = 0.5
vernier = 0.25
vernier = 0.125
vernier = 0.0625
Gmin = 1.10559
vernier = 0.03125
vernier = 0.015625
Gmin = 1.0552
vernier = 0.0078125
vernier = 0.0104167
vernier = 0.00520833
Gmin = 1.04089
vernier = 0.00260417
Gmin = 1.0328
vernier = 0.00347222
vernier = 0.00173611
Gmin = 1.0281
vernier = 0.00231481
vernier = 0.00115741
Gmin = 1.02484
vernier = 0.00154321
vernier = 0.000771604
Gmin = 1.02227
vernier = 0.00102881
vernier = 0.00137174
vernier = 0.00068587
Gmin = 1.0203
vernier = 0.000914493
vernier = 0.000457247
Gmin = 1.01896
vernier = 0.000609662
vernier = 0.000812882
Gmin = 1.01747
vernier = 0.000406441
vernier = 0.000541921
Gmin = 1.01661
vernier = 0.000722562
vernier = 0.000541921
vernier = 0.000406441
Gmin = 1.01589
vernier = 0.000541921
vernier = 0.000406441
vernier = 0.000541921
Gmin = 1.01503
vernier = 0.000406441
vernier = 0.000541921
vernier = 0.000406441
Gmin = 0
Gmin = 0
Gmin stepping failed

Starting source stepping with srcstepmethod=0
Source Step = 3.0303%
Source Step = 33.3333%
Source Step = 63.6364%
Source Step = 93.9394%
Source Step = 100%
Source stepping succeeded in finding the operating point.

.step 
Total elapsed time: 1.445 seconds.

Files loaded:
C:\Users\dylan\Documents\GitHub\Black_Body\Simulations\LTspice_Voltage_Measurement\Voltage_Amplifier.net
C:\Users\dylan\AppData\Local\LTspice\lib\sub\AD8421.lib
C:\Users\dylan\AppData\Local\LTspice\lib\sub\ADI.lib

